Circuit: * C:\Users\Laevateinn\Documents\LTspiceXVII\Draft2.asc


Date: Mon Sep 15 11:25:20 2025
Total elapsed time: 0.042 seconds.

tnom = 27
temp = 27
method = trap
totiter = 0
traniter = 0
tranpoints = 0
accept = 0
rejected = 0
matrix size = 3
fillins = 0
solver = Normal

