Circuit: * C:\Users\Laevateinn\Documents\LTspiceXVII\Draft1.asc


Date: Mon Sep 15 11:25:24 2025
Total elapsed time: 0.037 seconds.

tnom = 27
temp = 27
method = trap
totiter = 0
traniter = 0
tranpoints = 0
accept = 0
rejected = 0
matrix size = 3
fillins = 1
solver = Normal

